data/feeders/R2-12.47-3.glm
clock {
     timezone EST+5EDT;
     timestamp '2000-01-01 0:00:00';
     stoptime '2000-01-01 0:01:00';
}
#set profiler=1
module tape;
module powerflow{
  solver_method NR;
  default_maximum_voltage_error 1e-6;
};
object transformer_configuration {
  name XF1_PADMOUNT_AS_5;
  power_rating 5.00;
  powerA_rating 5.00;
  powerB_rating 0.0;
  powerC_rating 0.0;
  install_type PADMOUNT;
  connect_type SINGLE_PHASE_CENTER_TAPPED;
  primary_voltage 7200.0;
  secondary_voltage 120.0;
  resistance 0.01050;
  resistance1 0.02100;
  resistance2 0.02100;
  reactance 0.01224;
  reactance1 0.00612;
  reactance2 0.00612;
  shunt_resistance 111.11;
  shunt_reactance 29.59;
}
object transformer_configuration {
  name XF1_PADMOUNT_BS_15;
  power_rating 15.00;
  powerA_rating 0.0;
  powerB_rating 15.00;
  powerC_rating 0.0;
  install_type PADMOUNT;
  connect_type SINGLE_PHASE_CENTER_TAPPED;
  primary_voltage 7200.0;
  secondary_voltage 120.0;
  resistance 0.00850;
  resistance1 0.01700;
  resistance2 0.01700;
  reactance 0.01176;
  reactance1 0.00588;
  reactance2 0.00588;
  shunt_resistance 166.67;
  shunt_reactance 39.53;
}
object transformer_configuration {
  name XF1_PADMOUNT_CS_5;
  power_rating 5.00;
  powerA_rating 0.0;
  powerB_rating 0.0;
  powerC_rating 5.00;
  install_type PADMOUNT;
  connect_type SINGLE_PHASE_CENTER_TAPPED;
  primary_voltage 7200.0;
  secondary_voltage 120.0;
  resistance 0.01050;
  resistance1 0.02100;
  resistance2 0.02100;
  reactance 0.01224;
  reactance1 0.00612;
  reactance2 0.00612;
  shunt_resistance 111.11;
  shunt_reactance 29.59;
}
object transformer_configuration {
  name XF1_PADMOUNT_AS_25;
  power_rating 25.00;
  powerA_rating 25.00;
  powerB_rating 0.0;
  powerC_rating 0.0;
  install_type PADMOUNT;
  connect_type SINGLE_PHASE_CENTER_TAPPED;
  primary_voltage 7200.0;
  secondary_voltage 120.0;
  resistance 0.00800;
  resistance1 0.01600;
  resistance2 0.01600;
  reactance 0.01208;
  reactance1 0.00604;
  reactance2 0.00604;
  shunt_resistance 192.31;
  shunt_reactance 51.81;
}
object transformer_configuration {
  name XF1_PADMOUNT_BS_25;
  power_rating 25.00;
  powerA_rating 0.0;
  powerB_rating 25.00;
  powerC_rating 0.0;
  install_type PADMOUNT;
  connect_type SINGLE_PHASE_CENTER_TAPPED;
  primary_voltage 7200.0;
  secondary_voltage 120.0;
  resistance 0.00800;
  resistance1 0.01600;
  resistance2 0.01600;
  reactance 0.01208;
  reactance1 0.00604;
  reactance2 0.00604;
  shunt_resistance 192.31;
  shunt_reactance 51.81;
}
object transformer_configuration {
  name XF1_PADMOUNT_CS_15;
  power_rating 15.00;
  powerA_rating 0.0;
  powerB_rating 0.0;
  powerC_rating 15.00;
  install_type PADMOUNT;
  connect_type SINGLE_PHASE_CENTER_TAPPED;
  primary_voltage 7200.0;
  secondary_voltage 120.0;
  resistance 0.00850;
  resistance1 0.01700;
  resistance2 0.01700;
  reactance 0.01176;
  reactance1 0.00588;
  reactance2 0.00588;
  shunt_resistance 166.67;
  shunt_reactance 39.53;
}
object transformer_configuration {
  name XF1_PADMOUNT_CS_25;
  power_rating 25.00;
  powerA_rating 0.0;
  powerB_rating 0.0;
  powerC_rating 25.00;
  install_type PADMOUNT;
  connect_type SINGLE_PHASE_CENTER_TAPPED;
  primary_voltage 7200.0;
  secondary_voltage 120.0;
  resistance 0.00800;
  resistance1 0.01600;
  resistance2 0.01600;
  reactance 0.01208;
  reactance1 0.00604;
  reactance2 0.00604;
  shunt_resistance 192.31;
  shunt_reactance 51.81;
}
object transformer_configuration {
  name XF1_PADMOUNT_BS_37p5;
  power_rating 37.50;
  powerA_rating 0.0;
  powerB_rating 37.50;
  powerC_rating 0.0;
  install_type PADMOUNT;
  connect_type SINGLE_PHASE_CENTER_TAPPED;
  primary_voltage 7200.0;
  secondary_voltage 120.0;
  resistance 0.00725;
  resistance1 0.01450;
  resistance2 0.01450;
  reactance 0.01320;
  reactance1 0.00660;
  reactance2 0.00660;
  shunt_resistance 212.77;
  shunt_reactance 57.47;
}
object transformer_configuration {
  name XF1_PADMOUNT_AS_50;
  power_rating 50.00;
  powerA_rating 50.00;
  powerB_rating 0.0;
  powerC_rating 0.0;
  install_type PADMOUNT;
  connect_type SINGLE_PHASE_CENTER_TAPPED;
  primary_voltage 7200.0;
  secondary_voltage 120.0;
  resistance 0.00650;
  resistance1 0.01300;
  resistance2 0.01300;
  reactance 0.01416;
  reactance1 0.00708;
  reactance2 0.00708;
  shunt_resistance 222.22;
  shunt_reactance 64.94;
}
object transformer_configuration {
  name XF1_PADMOUNT_BS_75;
  power_rating 75.00;
  powerA_rating 0.0;
  powerB_rating 75.00;
  powerC_rating 0.0;
  install_type PADMOUNT;
  connect_type SINGLE_PHASE_CENTER_TAPPED;
  primary_voltage 7200.0;
  secondary_voltage 120.0;
  resistance 0.00625;
  resistance1 0.01250;
  resistance2 0.01250;
  reactance 0.01352;
  reactance1 0.00676;
  reactance2 0.00676;
  shunt_resistance 238.10;
  shunt_reactance 67.11;
}
object transformer_configuration {
  name XF1_PADMOUNT_CS_50;
  power_rating 50.00;
  powerA_rating 0.0;
  powerB_rating 0.0;
  powerC_rating 50.00;
  install_type PADMOUNT;
  connect_type SINGLE_PHASE_CENTER_TAPPED;
  primary_voltage 7200.0;
  secondary_voltage 120.0;
  resistance 0.00650;
  resistance1 0.01300;
  resistance2 0.01300;
  reactance 0.01416;
  reactance1 0.00708;
  reactance2 0.00708;
  shunt_resistance 222.22;
  shunt_reactance 64.94;
}
object transformer_configuration {
  name XF1_PADMOUNT_CS_37p5;
  power_rating 37.50;
  powerA_rating 0.0;
  powerB_rating 0.0;
  powerC_rating 37.50;
  install_type PADMOUNT;
  connect_type SINGLE_PHASE_CENTER_TAPPED;
  primary_voltage 7200.0;
  secondary_voltage 120.0;
  resistance 0.00725;
  resistance1 0.01450;
  resistance2 0.01450;
  reactance 0.01320;
  reactance1 0.00660;
  reactance2 0.00660;
  shunt_resistance 212.77;
  shunt_reactance 57.47;
}
object transformer_configuration {
  name XF1_PADMOUNT_CS_100;
  power_rating 100.00;
  powerA_rating 0.0;
  powerB_rating 0.0;
  powerC_rating 100.00;
  install_type PADMOUNT;
  connect_type SINGLE_PHASE_CENTER_TAPPED;
  primary_voltage 7200.0;
  secondary_voltage 120.0;
  resistance 0.00600;
  resistance1 0.01200;
  resistance2 0.01200;
  reactance 0.01752;
  reactance1 0.00876;
  reactance2 0.00876;
  shunt_resistance 250.00;
  shunt_reactance 68.97;
}
object transformer_configuration {
  name XF1_PADMOUNT_BS_5;
  power_rating 5.00;
  powerA_rating 0.0;
  powerB_rating 5.00;
  powerC_rating 0.0;
  install_type PADMOUNT;
  connect_type SINGLE_PHASE_CENTER_TAPPED;
  primary_voltage 7200.0;
  secondary_voltage 120.0;
  resistance 0.01050;
  resistance1 0.02100;
  resistance2 0.02100;
  reactance 0.01224;
  reactance1 0.00612;
  reactance2 0.00612;
  shunt_resistance 111.11;
  shunt_reactance 29.59;
}
object transformer_configuration {
  name XF1_PADMOUNT_AS_15;
  power_rating 15.00;
  powerA_rating 15.00;
  powerB_rating 0.0;
  powerC_rating 0.0;
  install_type PADMOUNT;
  connect_type SINGLE_PHASE_CENTER_TAPPED;
  primary_voltage 7200.0;
  secondary_voltage 120.0;
  resistance 0.00850;
  resistance1 0.01700;
  resistance2 0.01700;
  reactance 0.01176;
  reactance1 0.00588;
  reactance2 0.00588;
  shunt_resistance 166.67;
  shunt_reactance 39.53;
}
object transformer_configuration {
  name XF1_POLETOP_AS_5;
  power_rating 5.00;
  powerA_rating 5.00;
  powerB_rating 0.0;
  powerC_rating 0.0;
  install_type POLETOP;
  connect_type SINGLE_PHASE_CENTER_TAPPED;
  primary_voltage 7200.0;
  secondary_voltage 120.0;
  resistance 0.01050;
  resistance1 0.02100;
  resistance2 0.02100;
  reactance 0.01224;
  reactance1 0.00612;
  reactance2 0.00612;
  shunt_resistance 111.11;
  shunt_reactance 29.59;
}
object transformer_configuration {
  name XF1_POLETOP_BS_5;
  power_rating 5.00;
  powerA_rating 0.0;
  powerB_rating 5.00;
  powerC_rating 0.0;
  install_type POLETOP;
  connect_type SINGLE_PHASE_CENTER_TAPPED;
  primary_voltage 7200.0;
  secondary_voltage 120.0;
  resistance 0.01050;
  resistance1 0.02100;
  resistance2 0.02100;
  reactance 0.01224;
  reactance1 0.00612;
  reactance2 0.00612;
  shunt_resistance 111.11;
  shunt_reactance 29.59;
}
object transformer_configuration {
  name XF1_POLETOP_CS_15;
  power_rating 15.00;
  powerA_rating 0.0;
  powerB_rating 0.0;
  powerC_rating 15.00;
  install_type POLETOP;
  connect_type SINGLE_PHASE_CENTER_TAPPED;
  primary_voltage 7200.0;
  secondary_voltage 120.0;
  resistance 0.00850;
  resistance1 0.01700;
  resistance2 0.01700;
  reactance 0.01176;
  reactance1 0.00588;
  reactance2 0.00588;
  shunt_resistance 166.67;
  shunt_reactance 39.53;
}
object transformer_configuration {
  name XF1_PADMOUNT_CS_10;
  power_rating 10.00;
  powerA_rating 0.0;
  powerB_rating 0.0;
  powerC_rating 10.00;
  install_type PADMOUNT;
  connect_type SINGLE_PHASE_CENTER_TAPPED;
  primary_voltage 7200.0;
  secondary_voltage 120.0;
  resistance 0.00950;
  resistance1 0.01900;
  resistance2 0.01900;
  reactance 0.01040;
  reactance1 0.00520;
  reactance2 0.00520;
  shunt_resistance 147.06;
  shunt_reactance 34.25;
}
object transformer_configuration {
  name XF1_POLETOP_AS_15;
  power_rating 15.00;
  powerA_rating 15.00;
  powerB_rating 0.0;
  powerC_rating 0.0;
  install_type POLETOP;
  connect_type SINGLE_PHASE_CENTER_TAPPED;
  primary_voltage 7200.0;
  secondary_voltage 120.0;
  resistance 0.00850;
  resistance1 0.01700;
  resistance2 0.01700;
  reactance 0.01176;
  reactance1 0.00588;
  reactance2 0.00588;
  shunt_resistance 166.67;
  shunt_reactance 39.53;
}
object transformer_configuration {
  name XF1_POLETOP_CS_25;
  power_rating 25.00;
  powerA_rating 0.0;
  powerB_rating 0.0;
  powerC_rating 25.00;
  install_type POLETOP;
  connect_type SINGLE_PHASE_CENTER_TAPPED;
  primary_voltage 7200.0;
  secondary_voltage 120.0;
  resistance 0.00800;
  resistance1 0.01600;
  resistance2 0.01600;
  reactance 0.01208;
  reactance1 0.00604;
  reactance2 0.00604;
  shunt_resistance 192.31;
  shunt_reactance 51.81;
}
object transformer_configuration {
  name XF1_POLETOP_CS_5;
  power_rating 5.00;
  powerA_rating 0.0;
  powerB_rating 0.0;
  powerC_rating 5.00;
  install_type POLETOP;
  connect_type SINGLE_PHASE_CENTER_TAPPED;
  primary_voltage 7200.0;
  secondary_voltage 120.0;
  resistance 0.01050;
  resistance1 0.02100;
  resistance2 0.02100;
  reactance 0.01224;
  reactance1 0.00612;
  reactance2 0.00612;
  shunt_resistance 111.11;
  shunt_reactance 29.59;
}
object transformer_configuration {
  name XF1_POLETOP_AS_25;
  power_rating 25.00;
  powerA_rating 25.00;
  powerB_rating 0.0;
  powerC_rating 0.0;
  install_type POLETOP;
  connect_type SINGLE_PHASE_CENTER_TAPPED;
  primary_voltage 7200.0;
  secondary_voltage 120.0;
  resistance 0.00800;
  resistance1 0.01600;
  resistance2 0.01600;
  reactance 0.01208;
  reactance1 0.00604;
  reactance2 0.00604;
  shunt_resistance 192.31;
  shunt_reactance 51.81;
}
object transformer_configuration {
  name XF1_PADMOUNT_BS_10;
  power_rating 10.00;
  powerA_rating 0.0;
  powerB_rating 10.00;
  powerC_rating 0.0;
  install_type PADMOUNT;
  connect_type SINGLE_PHASE_CENTER_TAPPED;
  primary_voltage 7200.0;
  secondary_voltage 120.0;
  resistance 0.00950;
  resistance1 0.01900;
  resistance2 0.01900;
  reactance 0.01040;
  reactance1 0.00520;
  reactance2 0.00520;
  shunt_resistance 147.06;
  shunt_reactance 34.25;
}
object transformer_configuration {
  name XF1_POLETOP_CS_37p5;
  power_rating 37.50;
  powerA_rating 0.0;
  powerB_rating 0.0;
  powerC_rating 37.50;
  install_type POLETOP;
  connect_type SINGLE_PHASE_CENTER_TAPPED;
  primary_voltage 7200.0;
  secondary_voltage 120.0;
  resistance 0.00725;
  resistance1 0.01450;
  resistance2 0.01450;
  reactance 0.01320;
  reactance1 0.00660;
  reactance2 0.00660;
  shunt_resistance 212.77;
  shunt_reactance 57.47;
}
object transformer_configuration {
  name XF1_POLETOP_AS_37p5;
  power_rating 37.50;
  powerA_rating 37.50;
  powerB_rating 0.0;
  powerC_rating 0.0;
  install_type POLETOP;
  connect_type SINGLE_PHASE_CENTER_TAPPED;
  primary_voltage 7200.0;
  secondary_voltage 120.0;
  resistance 0.00725;
  resistance1 0.01450;
  resistance2 0.01450;
  reactance 0.01320;
  reactance1 0.00660;
  reactance2 0.00660;
  shunt_resistance 212.77;
  shunt_reactance 57.47;
}
object transformer_configuration {
  name XF1_POLETOP_BS_50;
  power_rating 50.00;
  powerA_rating 0.0;
  powerB_rating 50.00;
  powerC_rating 0.0;
  install_type POLETOP;
  connect_type SINGLE_PHASE_CENTER_TAPPED;
  primary_voltage 7200.0;
  secondary_voltage 120.0;
  resistance 0.00650;
  resistance1 0.01300;
  resistance2 0.01300;
  reactance 0.01416;
  reactance1 0.00708;
  reactance2 0.00708;
  shunt_resistance 222.22;
  shunt_reactance 64.94;
}
object transformer_configuration {
  name XF1_POLETOP_BS_25;
  power_rating 25.00;
  powerA_rating 0.0;
  powerB_rating 25.00;
  powerC_rating 0.0;
  install_type POLETOP;
  connect_type SINGLE_PHASE_CENTER_TAPPED;
  primary_voltage 7200.0;
  secondary_voltage 120.0;
  resistance 0.00800;
  resistance1 0.01600;
  resistance2 0.01600;
  reactance 0.01208;
  reactance1 0.00604;
  reactance2 0.00604;
  shunt_resistance 192.31;
  shunt_reactance 51.81;
}
object transformer_configuration {
  name XF1_POLETOP_BS_37p5;
  power_rating 37.50;
  powerA_rating 0.0;
  powerB_rating 37.50;
  powerC_rating 0.0;
  install_type POLETOP;
  connect_type SINGLE_PHASE_CENTER_TAPPED;
  primary_voltage 7200.0;
  secondary_voltage 120.0;
  resistance 0.00725;
  resistance1 0.01450;
  resistance2 0.01450;
  reactance 0.01320;
  reactance1 0.00660;
  reactance2 0.00660;
  shunt_resistance 212.77;
  shunt_reactance 57.47;
}
object transformer_configuration {
  name XF1_POLETOP_BS_15;
  power_rating 15.00;
  powerA_rating 0.0;
  powerB_rating 15.00;
  powerC_rating 0.0;
  install_type POLETOP;
  connect_type SINGLE_PHASE_CENTER_TAPPED;
  primary_voltage 7200.0;
  secondary_voltage 120.0;
  resistance 0.00850;
  resistance1 0.01700;
  resistance2 0.01700;
  reactance 0.01176;
  reactance1 0.00588;
  reactance2 0.00588;
  shunt_resistance 166.67;
  shunt_reactance 39.53;
}
object transformer_configuration {
  name XF1_PADMOUNT_BS_50;
  power_rating 50.00;
  powerA_rating 0.0;
  powerB_rating 50.00;
  powerC_rating 0.0;
  install_type PADMOUNT;
  connect_type SINGLE_PHASE_CENTER_TAPPED;
  primary_voltage 7200.0;
  secondary_voltage 120.0;
  resistance 0.00650;
  resistance1 0.01300;
  resistance2 0.01300;
  reactance 0.01416;
  reactance1 0.00708;
  reactance2 0.00708;
  shunt_resistance 222.22;
  shunt_reactance 64.94;
}
object transformer_configuration {
  name XF1_PADMOUNT_AS_100;
  power_rating 100.00;
  powerA_rating 100.00;
  powerB_rating 0.0;
  powerC_rating 0.0;
  install_type PADMOUNT;
  connect_type SINGLE_PHASE_CENTER_TAPPED;
  primary_voltage 7200.0;
  secondary_voltage 120.0;
  resistance 0.00600;
  resistance1 0.01200;
  resistance2 0.01200;
  reactance 0.01752;
  reactance1 0.00876;
  reactance2 0.00876;
  shunt_resistance 250.00;
  shunt_reactance 68.97;
}
object transformer_configuration {
  name XF1_PADMOUNT_BS_100;
  power_rating 100.00;
  powerA_rating 0.0;
  powerB_rating 100.00;
  powerC_rating 0.0;
  install_type PADMOUNT;
  connect_type SINGLE_PHASE_CENTER_TAPPED;
  primary_voltage 7200.0;
  secondary_voltage 120.0;
  resistance 0.00600;
  resistance1 0.01200;
  resistance2 0.01200;
  reactance 0.01752;
  reactance1 0.00876;
  reactance2 0.00876;
  shunt_resistance 250.00;
  shunt_reactance 68.97;
}
object transformer_configuration {
  name XF3_PADMOUNT_ABCN_300;
  power_rating 300.00;
  powerA_rating 100.00;
  powerB_rating 100.00;
  powerC_rating 100.00;
  install_type PADMOUNT;
  connect_type WYE_WYE;
  primary_voltage 12470.0;
  secondary_voltage 480.0;
  resistance 0.01300;
  reactance 0.04830;
  shunt_resistance 217.39;
  shunt_reactance 44.44;
}
object transformer_configuration {
  name XF3_PADMOUNT_ABCN_30;
  power_rating 30.00;
  powerA_rating 10.00;
  powerB_rating 10.00;
  powerC_rating 10.00;
  install_type PADMOUNT;
  connect_type WYE_WYE;
  primary_voltage 12470.0;
  secondary_voltage 208.0;
  resistance 0.01900;
  reactance 0.01770;
  shunt_resistance 126.58;
  shunt_reactance 22.57;
}
object transformer_configuration {
  name XF3_POLETOP_ABCN_112p5;
  power_rating 112.50;
  powerA_rating 37.50;
  powerB_rating 37.50;
  powerC_rating 37.50;
  install_type POLETOP;
  connect_type WYE_WYE;
  primary_voltage 12470.0;
  secondary_voltage 480.0;
  resistance 0.01450;
  reactance 0.02850;
  shunt_resistance 169.49;
  shunt_reactance 33.44;
}
object transformer_configuration {
  name XF3_POLETOP_ABCN_30;
  power_rating 30.00;
  powerA_rating 10.00;
  powerB_rating 10.00;
  powerC_rating 10.00;
  install_type POLETOP;
  connect_type WYE_WYE;
  primary_voltage 12470.0;
  secondary_voltage 208.0;
  resistance 0.01900;
  reactance 0.01770;
  shunt_resistance 126.58;
  shunt_reactance 22.57;
}
object transformer_configuration {
  name XF3_PADMOUNT_ABCN_150;
  power_rating 150.00;
  powerA_rating 50.00;
  powerB_rating 50.00;
  powerC_rating 50.00;
  install_type PADMOUNT;
  connect_type WYE_WYE;
  primary_voltage 12470.0;
  secondary_voltage 480.0;
  resistance 0.01300;
  reactance 0.03250;
  shunt_resistance 185.19;
  shunt_reactance 36.36;
}
object transformer_configuration {
  name XF1_PADMOUNT_AN_15;
  power_rating 15.00;
  powerA_rating 15.00;
  powerB_rating 0.0;
  powerC_rating 0.0;
  install_type PADMOUNT;
  connect_type WYE_WYE;
  primary_voltage 12470.0;
  secondary_voltage 208.0;
  resistance 0.01900;
  reactance 0.01770;
  shunt_resistance 126.58;
  shunt_reactance 22.57;
}
object transformer_configuration {
  name XF1_PADMOUNT_AN_5;
  power_rating 5.00;
  powerA_rating 5.00;
  powerB_rating 0.0;
  powerC_rating 0.0;
  install_type PADMOUNT;
  connect_type WYE_WYE;
  primary_voltage 12470.0;
  secondary_voltage 208.0;
  resistance 0.01900;
  reactance 0.01770;
  shunt_resistance 126.58;
  shunt_reactance 22.57;
}
object regulator_configuration {
  name feeder_reg_cfg;
  Control MANUAL;
  band_center 7500.0;
  band_width 120;
  connect_type WYE_WYE;
  time_delay 30;
  raise_taps 16;
  lower_taps 16;
  regulation 0.10;
  tap_pos_A 0;
  tap_pos_B 0;
  tap_pos_C 0;
}
object overhead_line_conductor {
  name ID_1059;
  rating.summer.continuous 149.0;
  geometric_mean_radius 0.00663 ft;
  resistance 1.50000;
}
object overhead_line_conductor {
  name ID_1060;
  rating.summer.continuous 120.0;
  geometric_mean_radius 0.00700 ft;
  resistance 2.40970;
}
object overhead_line_conductor {
  name ID_1061;
  rating.summer.continuous 533.0;
  geometric_mean_radius 0.02280 ft;
  resistance 0.25800;
}
object overhead_line_conductor {
  name ID_1062;
  rating.summer.continuous 112.0;
  geometric_mean_radius 0.00526 ft;
  resistance 2.39000;
}
object overhead_line_conductor {
  name ID_1063;
  rating.summer.continuous 443.0;
  geometric_mean_radius 0.02270 ft;
  resistance 0.05230;
}
object overhead_line_conductor {
  name ID_1064;
  rating.summer.continuous 605.0;
  geometric_mean_radius 0.02920 ft;
  resistance 0.03180;
}
object overhead_line_conductor {
  name ID_1065;
  rating.summer.continuous 256.0;
  geometric_mean_radius 0.01200 ft;
  resistance 0.16600;
}
object overhead_line_conductor {
  name ID_1066;
  rating.summer.continuous 334.0;
  geometric_mean_radius 0.00814 ft;
  resistance 0.56300;
}
object line_spacing {
  name ID_82;
  distance_AB 3.0 in;
  distance_BC 3.0 in;
  distance_AC 3.0 in;
  distance_AN 2.0 in;
  distance_BN 2.0 in;
  distance_CN 2.0 in;
}
object line_spacing {
  name ID_83;
  distance_BN 2.0 in;
}
object line_spacing {
  name ID_84;
  distance_AN 2.0 in;
}
object line_spacing {
  name ID_85;
  distance_CN 2.0 in;
}
object line_spacing {
  name ID_86;
  distance_CN 2.0 in;
}
object line_spacing {
  name ID_87;
  distance_AB 48.0 in;
  distance_BC 48.0 in;
  distance_AC 48.0 in;
  distance_AN 36.0 in;
  distance_BN 36.0 in;
  distance_CN 36.0 in;
}
object line_spacing {
  name ID_88;
  distance_AC 48.0 in;
  distance_AN 36.0 in;
  distance_CN 36.0 in;
}
object line_spacing {
  name ID_89;
  distance_CN 36.0 in;
}
object line_spacing {
  name ID_90;
  distance_AC 3.0 in;
  distance_AN 2.0 in;
  distance_CN 2.0 in;
}
object line_spacing {
  name ID_91;
  distance_BC 48.0 in;
  distance_BN 36.0 in;
  distance_CN 36.0 in;
}
object line_spacing {
  name ID_92;
  distance_AN 36.0 in;
}
object line_spacing {
  name ID_93;
  distance_BN 36.0 in;
}
object line_spacing {
  name ID_94;
  distance_BC 3.0 in;
  distance_BN 2.0 in;
  distance_CN 2.0 in;
}
object line_spacing {
  name ID_95;
  distance_AB 3.0 in;
  distance_AN 2.0 in;
  distance_BN 2.0 in;
}
object line_spacing {
  name ID_96;
  distance_AN 48.0 in;
}
object line_configuration {
  name ID_45;
  conductor_A ID_4240;
  conductor_B ID_4240;
  conductor_C ID_4240;
  conductor_N ID_4240;
  spacing ID_82;
}
object line_configuration {
  name ID_46;
  conductor_B ID_4240;
  conductor_N ID_4240;
  spacing ID_83;
}
object line_configuration {
  name ID_47;
  conductor_A ID_4240;
  conductor_N ID_4240;
  spacing ID_84;
}
object line_configuration {
  name ID_48;
  conductor_C ID_4240;
  conductor_N ID_4240;
  spacing ID_85;
}
object line_configuration {
  name ID_49;
  conductor_C ID_4240;
  conductor_N ID_4240;
  spacing ID_86;
}
object line_configuration {
  name ID_50;
  conductor_C ID_4241;
  conductor_N ID_4241;
  spacing ID_85;
}
object line_configuration {
  name ID_51;
  conductor_A ID_1059;
  conductor_B ID_1059;
  conductor_C ID_1059;
  conductor_N ID_1059;
  spacing ID_87;
}
object line_configuration {
  name ID_52;
  conductor_A ID_1059;
  conductor_C ID_1059;
  conductor_N ID_1059;
  spacing ID_88;
}
object line_configuration {
  name ID_53;
  conductor_A ID_1060;
  conductor_C ID_1060;
  conductor_N ID_1060;
  spacing ID_88;
}
object line_configuration {
  name ID_54;
  conductor_C ID_4242;
  conductor_N ID_4242;
  spacing ID_85;
}
object line_configuration {
  name ID_55;
  conductor_A ID_1060;
  conductor_B ID_1060;
  conductor_C ID_1060;
  conductor_N ID_1060;
  spacing ID_87;
}
object line_configuration {
  name ID_56;
  conductor_A ID_1061;
  conductor_B ID_1061;
  conductor_C ID_1061;
  conductor_N ID_1061;
  spacing ID_87;
}
object line_configuration {
  name ID_57;
  conductor_C ID_1059;
  conductor_N ID_1059;
  spacing ID_89;
}
object line_configuration {
  name ID_58;
  conductor_A ID_4243;
  conductor_B ID_4243;
  conductor_C ID_4243;
  conductor_N ID_4243;
  spacing ID_82;
}
object line_configuration {
  name ID_59;
  conductor_C ID_4243;
  conductor_N ID_4243;
  spacing ID_85;
}
object line_configuration {
  name ID_60;
  conductor_A ID_4242;
  conductor_C ID_4242;
  conductor_N ID_4242;
  spacing ID_90;
}
object line_configuration {
  name ID_61;
  conductor_A ID_1062;
  conductor_C ID_1062;
  conductor_N ID_1062;
  spacing ID_88;
}
object line_configuration {
  name ID_62;
  conductor_A ID_4242;
  conductor_N ID_4242;
  spacing ID_84;
}
object line_configuration {
  name ID_63;
  conductor_A ID_4244;
  conductor_B ID_4244;
  conductor_C ID_4244;
  conductor_N ID_4244;
  spacing ID_82;
}
object line_configuration {
  name ID_64;
  conductor_A ID_4241;
  conductor_B ID_4241;
  conductor_C ID_4241;
  conductor_N ID_4241;
  spacing ID_87;
}
object line_configuration {
  name ID_65;
  conductor_A ID_1062;
  conductor_B ID_1062;
  conductor_C ID_1062;
  conductor_N ID_1062;
  spacing ID_87;
}
object line_configuration {
  name ID_66;
  conductor_A ID_1060;
  conductor_B ID_1060;
  conductor_C ID_1060;
  conductor_N ID_1060;
  spacing ID_87;
}
object line_configuration {
  name ID_67;
  conductor_B ID_1062;
  conductor_C ID_1062;
  conductor_N ID_1062;
  spacing ID_91;
}
object line_configuration {
  name ID_68;
  conductor_A ID_1060;
  conductor_N ID_1060;
  spacing ID_92;
}
object line_configuration {
  name ID_69;
  conductor_A ID_1059;
  conductor_N ID_1059;
  spacing ID_92;
}
object line_configuration {
  name ID_70;
  conductor_A ID_4241;
  conductor_B ID_4241;
  conductor_C ID_4241;
  conductor_N ID_4241;
  spacing ID_82;
}
object line_configuration {
  name ID_71;
  conductor_A ID_4241;
  conductor_N ID_4241;
  spacing ID_84;
}
object line_configuration {
  name ID_72;
  conductor_B ID_1060;
  conductor_N ID_1060;
  spacing ID_93;
}
object line_configuration {
  name ID_73;
  conductor_A ID_1063;
  conductor_B ID_1063;
  conductor_C ID_1063;
  conductor_N ID_1063;
  spacing ID_87;
}
object line_configuration {
  name ID_74;
  conductor_A ID_1064;
  conductor_B ID_1064;
  conductor_C ID_1064;
  conductor_N ID_1064;
  spacing ID_87;
}
object line_configuration {
  name ID_75;
  conductor_A ID_1065;
  conductor_B ID_1065;
  conductor_C ID_1065;
  conductor_N ID_1065;
  spacing ID_87;
}
object line_configuration {
  name ID_76;
  conductor_A ID_4240;
  conductor_C ID_4240;
  conductor_N ID_4240;
  spacing ID_90;
}
object line_configuration {
  name ID_77;
  conductor_C ID_1063;
  conductor_N ID_1063;
  spacing ID_89;
}
object line_configuration {
  name ID_78;
  conductor_B ID_4240;
  conductor_C ID_4240;
  conductor_N ID_4240;
  spacing ID_94;
}
object line_configuration {
  name ID_79;
  conductor_A ID_4240;
  conductor_B ID_4240;
  conductor_N ID_4240;
  spacing ID_95;
}
object line_configuration {
  name ID_80;
  conductor_A ID_1059;
  conductor_N ID_1059;
  spacing ID_96;
}
object line_configuration {
  name ID_81;
  conductor_C ID_4244;
  conductor_N ID_4244;
  spacing ID_85;
}
object triplex_line_conductor {
  name triplex_4/0_aa;
  resistance 0.48;
  geometric_mean_radius 0.0158;
  rating.summer.continuous 1000.0;
  rating.summer.emergency 1000.0;
  rating.winter.continuous 1000.0;
  rating.winter.emergency 1000.0;
}
object triplex_line_configuration {
  name ID_1710;
  conductor_1 triplex_4/0_aa;
  conductor_2 triplex_4/0_aa;
  conductor_N triplex_4/0_aa;
  insulation_thickness 0.08;
  diameter 0.522;
}
object underground_line_conductor {
  name ID_4240;
  rating.summer.continuous 112.0;
  outer_diameter 1.09;
  conductor_gmr 0.0088 ft;
  conductor_diameter 0.292;
  conductor_resistance 1.38336;
  neutral_gmr 0.00208 ft;
  neutral_resistance 14.87;
  neutral_diameter 0.0641;
  neutral_strands 6.0;
  insulation_relative_permitivitty 2.3;
}
object underground_line_conductor {
  name ID_4241;
  rating.summer.continuous 214.0;
  outer_diameter 1.32;
  conductor_gmr 0.0177 ft;
  conductor_diameter 0.528;
  conductor_resistance 0.433488;
  neutral_gmr 0.00208 ft;
  neutral_resistance 14.87;
  neutral_diameter 0.0641;
  neutral_strands 11.0;
  insulation_relative_permitivitty 2.3;
}
object underground_line_conductor {
  name ID_4242;
  rating.summer.continuous 142.0;
  outer_diameter 1.27;
  conductor_gmr 0.01142 ft;
  conductor_diameter 0.362;
  conductor_resistance 0.88704;
  neutral_gmr 0.00208 ft;
  neutral_resistance 14.87;
  neutral_diameter 0.0641;
  neutral_strands 16.0;
  insulation_relative_permitivitty 2.3;
}
object underground_line_conductor {
  name ID_4243;
  rating.summer.continuous 425.0;
  outer_diameter 1.96;
  conductor_gmr 0.0321 ft;
  conductor_diameter 0.998;
  conductor_resistance 0.122496;
  neutral_gmr 0.00330 ft;
  neutral_resistance 5.9026;
  neutral_diameter 0.1019;
  neutral_strands 15.0;
  insulation_relative_permitivitty 2.3;
}
object underground_line_conductor {
  name ID_4244;
  rating.summer.continuous 488.0;
  outer_diameter 2.15;
  conductor_gmr 0.0371 ft;
  conductor_diameter 1.152;
  conductor_resistance 0.091872;
  neutral_gmr 0.00330 ft;
  neutral_resistance 5.9026;
  neutral_diameter 0.1019;
  neutral_strands 20.0;
  insulation_relative_permitivitty 2.3;
}
object fuse {
  name R2_12_47_3_fuse_1;
// downstream 323.19 kva on ABCS
  phases ABCN;
  from R2_12_47_3_node_228;
  to R2_12_47_3_node_265;
  current_limit 40;
  status CLOSED;
  mean_replacement_time 3600;
}
object fuse {
  name R2_12_47_3_fuse_2;
// downstream 142.86 kva on ABCS
  phases ABCN;
  from R2_12_47_3_node_232;
  to R2_12_47_3_node_272;
  current_limit 40;
  status CLOSED;
  mean_replacement_time 3600;
}
object fuse {
  name R2_12_47_3_fuse_3;
// downstream 14.64 kva on ABCS
  phases ABCN;
  from R2_12_47_3_node_65;
  to R2_12_47_3_node_628;
  current_limit 40;
  status CLOSED;
  mean_replacement_time 3600;
}
object fuse {
  name R2_12_47_3_fuse_4;
// downstream 212.28 kva on ACS
  phases ACN;
  from R2_12_47_3_node_39;
  to R2_12_47_3_node_40;
  current_limit 40;
  status CLOSED;
  mean_replacement_time 3600;
}
object fuse {
  name R2_12_47_3_fuse_5;
// downstream 1139.68 kva on ABCS
  phases ABCN;
  from R2_12_47_3_node_66;
  to R2_12_47_3_node_535;
  current_limit 200;
  status CLOSED;
  mean_replacement_time 3600;
}
object fuse {
  name R2_12_47_3_fuse_6;
  phases ABCN;
  from R2_12_47_3_node_59;
  to R2_12_47_3_node_45;
  current_limit 50000;
  status CLOSED;
  mean_replacement_time 3600;
}
object fuse {
  name R2_12_47_3_fuse_7;
// downstream 14.64 kva on CS
  phases ABCN;
  from R2_12_47_3_node_61;
  to R2_12_47_3_node_63;
  current_limit 40;
  status CLOSED;
  mean_replacement_time 3600;
}
object fuse {
  name R2_12_47_3_fuse_8;
// downstream 14.64 kva on CS
  phases CN;
  from R2_12_47_3_node_82;
  to R2_12_47_3_node_81;
  current_limit 40;
  status CLOSED;
  mean_replacement_time 3600;
}
object fuse {
  name R2_12_47_3_fuse_9;
// downstream 39.23 kva on ABCS
  phases ABCN;
  from R2_12_47_3_node_71;
  to R2_12_47_3_node_72;
  current_limit 40;
  status CLOSED;
  mean_replacement_time 3600;
}
object fuse {
  name R2_12_47_3_fuse_10;
// downstream 9.76 kva on CS
  phases CN;
  from R2_12_47_3_node_71;
  to R2_12_47_3_node_74;
  current_limit 40;
  status CLOSED;
  mean_replacement_time 3600;
}
object fuse {
  name R2_12_47_3_fuse_11;
// downstream 58.57 kva on CS
  phases CN;
  from R2_12_47_3_node_98;
  to R2_12_47_3_node_99;
  current_limit 40;
  status CLOSED;
  mean_replacement_time 3600;
}
object fuse {
  name R2_12_47_3_fuse_12;
// downstream 34.47 kva on ABCS
  phases ABCN;
  from R2_12_47_3_node_88;
  to R2_12_47_3_node_89;
  current_limit 40;
  status CLOSED;
  mean_replacement_time 3600;
}
object fuse {
  name R2_12_47_3_fuse_13;
// downstream 503.10 kva on ABCS
  phases ABCN;
  from R2_12_47_3_node_90;
  to R2_12_47_3_node_91;
  current_limit 65;
  status CLOSED;
  mean_replacement_time 3600;
}
object fuse {
  name R2_12_47_3_fuse_14;
// downstream 155.79 kva on AS
  phases AN;
  from R2_12_47_3_node_148;
  to R2_12_47_3_node_120;
  current_limit 65;
  status CLOSED;
  mean_replacement_time 3600;
}
object fuse {
  name R2_12_47_3_fuse_15;
// downstream 18.91 kva on AS
  phases ABCN;
  from R2_12_47_3_node_146;
  to R2_12_47_3_node_114;
  current_limit 40;
  status CLOSED;
  mean_replacement_time 3600;
}
object fuse {
  name R2_12_47_3_fuse_16;
// downstream 23.63 kva on AS
  phases ABCN;
  from R2_12_47_3_node_145;
  to R2_12_47_3_node_149;
  current_limit 40;
  status CLOSED;
  mean_replacement_time 3600;
}
object fuse {
  name R2_12_47_3_fuse_17;
// downstream 14.64 kva on CS
  phases CN;
  from R2_12_47_3_node_171;
  to R2_12_47_3_node_170;
  current_limit 40;
  status CLOSED;
  mean_replacement_time 3600;
}
object fuse {
  name R2_12_47_3_fuse_18;
// downstream 1327.40 kva on ABCS
  phases ABCN;
  from R2_12_47_3_node_749;
  to R2_12_47_3_node_748;
  current_limit 200;
  status CLOSED;
  mean_replacement_time 3600;
}
object fuse {
  name R2_12_47_3_fuse_19;
  phases ABCN;
  from R2_12_47_3_node_757;
  to R2_12_47_3_node_776;
  current_limit 50000;
  status CLOSED;
  mean_replacement_time 3600;
}
object fuse {
  name R2_12_47_3_fuse_20;
// downstream 95.11 kva on BS
  phases BN;
  from R2_12_47_3_node_214;
  to R2_12_47_3_node_209;
  current_limit 40;
  status CLOSED;
  mean_replacement_time 3600;
}
object fuse {
  name R2_12_47_3_fuse_21;
// downstream 47.56 kva on BS
  phases ABCN;
  from R2_12_47_3_node_215;
  to R2_12_47_3_node_243;
  current_limit 40;
  status CLOSED;
  mean_replacement_time 3600;
}
object fuse {
  name R2_12_47_3_fuse_22;
// downstream 58.57 kva on CS
  phases ABCN;
  from R2_12_47_3_node_216;
  to R2_12_47_3_node_212;
  current_limit 40;
  status CLOSED;
  mean_replacement_time 3600;
}
object fuse {
  name R2_12_47_3_fuse_23;
// downstream 19.52 kva on CS
  phases CN;
  from R2_12_47_3_node_70;
  to R2_12_47_3_node_222;
  current_limit 40;
  status CLOSED;
  mean_replacement_time 3600;
}
object fuse {
  name R2_12_47_3_fuse_24;
// downstream 107.37 kva on CS
  phases ACN;
  from R2_12_47_3_node_68;
  to R2_12_47_3_node_236;
  current_limit 40;
  status CLOSED;
  mean_replacement_time 3600;
}
object fuse {
  name R2_12_47_3_fuse_25;
// downstream 283.07 kva on CS
  phases CN;
  from R2_12_47_3_node_54;
  to R2_12_47_3_node_32;
  current_limit 100;
  status CLOSED;
  mean_replacement_time 3600;
}
object fuse {
  name R2_12_47_3_fuse_26;
// downstream 73.21 kva on CS
  phases CN;
  from R2_12_47_3_node_90;
  to R2_12_47_3_node_242;
  current_limit 40;
  status CLOSED;
  mean_replacement_time 3600;
}
object fuse {
  name R2_12_47_3_fuse_27;
// downstream 68.33 kva on CS
  phases CN;
  from R2_12_47_3_node_105;
  to R2_12_47_3_node_512;
  current_limit 40;
  status CLOSED;
  mean_replacement_time 3600;
}
object fuse {
  name R2_12_47_3_fuse_28;
// downstream 58.57 kva on CS
  phases CN;
  from R2_12_47_3_node_107;
  to R2_12_47_3_node_253;
  current_limit 40;
  status CLOSED;
  mean_replacement_time 3600;
}
object fuse {
  name R2_12_47_3_fuse_29;
// downstream 97.09 kva on ABC
  phases ABCN;
  from R2_12_47_3_node_7;
  to R2_12_47_3_node_8;
  current_limit 40;
  status CLOSED;
  mean_replacement_time 3600;
}
object fuse {
  name R2_12_47_3_fuse_30;
// downstream 513.87 kva on ABCS
  phases ABCN;
  from R2_12_47_3_node_294;
  to R2_12_47_3_node_297;
  current_limit 65;
  status CLOSED;
  mean_replacement_time 3600;
}
object fuse {
  name R2_12_47_3_fuse_31;
// downstream 306.51 kva on ABCS
  phases ABCN;
  from R2_12_47_3_node_294;
  to R2_12_47_3_node_298;
  current_limit 40;
  status CLOSED;
  mean_replacement_time 3600;
}
object fuse {
  name R2_12_47_3_fuse_32;
// downstream 571.89 kva on ABCS
  phases ABCN;
  from R2_12_47_3_node_467;
  to R2_12_47_3_node_469;
  current_limit 100;
  status CLOSED;
  mean_replacement_time 3600;
}
object fuse {
  name R2_12_47_3_fuse_33;
// downstream 9.45 kva on AS
  phases AN;
  from R2_12_47_3_node_467;
  to R2_12_47_3_node_471;
  current_limit 40;
  status CLOSED;
  mean_replacement_time 3600;
}
object fuse {
  name R2_12_47_3_fuse_34;
// downstream 9.45 kva on AS
  phases AN;
  from R2_12_47_3_node_473;
  to R2_12_47_3_node_475;
  current_limit 40;
  status CLOSED;
  mean_replacement_time 3600;
}
object fuse {
  name R2_12_47_3_fuse_35;
// downstream 1068.57 kva on ABCS
  phases ABCN;
  from R2_12_47_3_node_454;
  to R2_12_47_3_node_517;
  current_limit 200;
  status CLOSED;
  mean_replacement_time 3600;
}
object fuse {
  name R2_12_47_3_fuse_36;
  phases ABCN;
  from R2_12_47_3_node_632;
  to R2_12_47_3_node_811;
  current_limit 50000;
  status CLOSED;
  mean_replacement_time 3600;
}
object fuse {
  name R2_12_47_3_fuse_37;
  phases ABCN;
  from R2_12_47_3_node_632;
  to R2_12_47_3_node_635;
  current_limit 50000;
  status CLOSED;
  mean_replacement_time 3600;
}
object fuse {
  name R2_12_47_3_fuse_38;
  phases ABCN;
  from R2_12_47_3_node_645;
  to R2_12_47_3_node_807;
  current_limit 50000;
  status CLOSED;
  mean_replacement_time 3600;
}
object fuse {
  name R2_12_47_3_fuse_39;
  phases ABCN;
  from R2_12_47_3_node_645;
  to R2_12_47_3_node_646;
  current_limit 50000;
  status CLOSED;
  mean_replacement_time 3600;
}
object fuse {
  name R2_12_47_3_fuse_40;
  phases ABCN;
  from R2_12_47_3_node_650;
  to R2_12_47_3_node_815;
  current_limit 50000;
  status CLOSED;
  mean_replacement_time 3600;
}
object fuse {
  name R2_12_47_3_fuse_41;
// downstream 828.21 kva on ABCS
  phases ABCN;
  from R2_12_47_3_node_685;
  to R2_12_47_3_node_684;
  current_limit 100;
  status CLOSED;
  mean_replacement_time 3600;
}
object switch {
  name R2_12_47_3_switch_1;
  phases BN;
  from R2_12_47_3_node_280;
  to R2_12_47_3_node_767;
  status CLOSED;
}
object switch {
  name R2_12_47_3_switch_2;
// downstream 29.28 kva on CS
  phases ABCN;
  from R2_12_47_3_node_281;
  to R2_12_47_3_node_331;
  status CLOSED;
}
object switch {
  name R2_12_47_3_switch_3;
  phases CN;
  from R2_12_47_3_node_338;
  to R2_12_47_3_node_768;
  status CLOSED;
}
object switch {
  name R2_12_47_3_switch_4;
// downstream 227.43 kva on ABCS
  phases ABCN;
  from R2_12_47_3_node_13;
  to R2_12_47_3_node_494;
  status CLOSED;
}
object switch {
  name R2_12_47_3_switch_5;
// downstream 47.56 kva on BS
  phases BN;
  from R2_12_47_3_node_581;
  to R2_12_47_3_node_498;
  status CLOSED;
}
object switch {
  name R2_12_47_3_switch_6;
// downstream 1170.19 kva on ABCS
  phases ABCN;
  from R2_12_47_3_node_55;
  to R2_12_47_3_node_54;
  status CLOSED;
}
object switch {
  name R2_12_47_3_switch_7;
  phases ABCN;
  from R2_12_47_3_node_76;
  to R2_12_47_3_node_77;
  status CLOSED;
}
object switch {
  name R2_12_47_3_switch_8;
  phases ABCN;
  from R2_12_47_3_node_78;
  to R2_12_47_3_node_85;
  status CLOSED;
}
object switch {
  name R2_12_47_3_switch_9;
// downstream 7750.52 kva on ABCS
  phases ABCN;
  from R2_12_47_3_node_84;
  to R2_12_47_3_node_83;
  status CLOSED;
}
object switch {
  name R2_12_47_3_switch_10;
  phases AN;
  from R2_12_47_3_node_31;
  to R2_12_47_3_node_772;
  status CLOSED;
}
object switch {
  name R2_12_47_3_switch_11;
// downstream 1327.40 kva on ABCS
  phases ABCN;
  from R2_12_47_3_node_747;
  to R2_12_47_3_node_749;
  status CLOSED;
}
object switch {
  name R2_12_47_3_switch_12;
  phases ABCN;
  from R2_12_47_3_node_750;
  to R2_12_47_3_node_775;
  status CLOSED;
}
object switch {
  name R2_12_47_3_switch_13;
  phases ABCN;
  from R2_12_47_3_node_749;
  to R2_12_47_3_node_753;
  status CLOSED;
}
object switch {
  name R2_12_47_3_switch_14;
  phases ABCN;
  from R2_12_47_3_node_755;
  to R2_12_47_3_node_756;
  status CLOSED;
}
object switch {
  name R2_12_47_3_switch_15;
  phases ABCN;
  from R2_12_47_3_node_756;
  to R2_12_47_3_node_758;
  status CLOSED;
}
object switch {
  name R2_12_47_3_switch_16;
  phases ABCN;
  from R2_12_47_3_node_756;
  to R2_12_47_3_node_759;
  status CLOSED;
}
object switch {
  name R2_12_47_3_switch_17;
// downstream 23.78 kva on BS
  phases BN;
  from R2_12_47_3_node_179;
  to R2_12_47_3_node_180;
  status CLOSED;
}
object switch {
  name R2_12_47_3_switch_18;
// downstream 47.27 kva on AS
  phases AN;
  from R2_12_47_3_node_181;
  to R2_12_47_3_node_166;
  status CLOSED;
}
object switch {
  name R2_12_47_3_switch_19;
  phases ABCN;
  from R2_12_47_3_node_27;
  to R2_12_47_3_node_221;
  status CLOSED;
}
object switch {
  name R2_12_47_3_switch_20;
// downstream 1327.40 kva on ABCS
  phases ABCN;
  from R2_12_47_3_node_154;
  to R2_12_47_3_node_153;
  status CLOSED;
}
object switch {
  name R2_12_47_3_switch_21;
// downstream 4722.98 kva on ABCS
  phases ABCN;
  from R2_12_47_3_node_262;
  to R2_12_47_3_node_263;
  status CLOSED;
}
object switch {
  name R2_12_47_3_switch_22;
// downstream 9.76 kva on CS
  phases CN;
  from R2_12_47_3_node_29;
  to R2_12_47_3_node_241;
  status CLOSED;
}
object switch {
  name R2_12_47_3_switch_23;
// downstream 97.61 kva on CS
  phases CN;
  from R2_12_47_3_node_30;
  to R2_12_47_3_node_29;
  status CLOSED;
}
object switch {
  name R2_12_47_3_switch_24;
// downstream 19.52 kva on CS
  phases CN;
  from R2_12_47_3_node_256;
  to R2_12_47_3_node_255;
  status CLOSED;
}
object switch {
  name R2_12_47_3_switch_25;
// downstream 1424.49 kva on ABCS
  phases ABCN;
  from R2_12_47_3_node_5;
  to R2_12_47_3_node_6;
  status CLOSED;
}
object switch {
  name R2_12_47_3_switch_26;
// downstream 2005.83 kva on ABCS
  phases ABCN;
  from R2_12_47_3_node_289;
  to R2_12_47_3_node_288;
  status CLOSED;
}
object switch {
  name R2_12_47_3_switch_27;
// downstream 4722.98 kva on ABCS
  phases ABCN;
  from R2_12_47_3_node_290;
  to R2_12_47_3_node_289;
  status CLOSED;
}
object switch {
  name R2_12_47_3_switch_28;
// downstream 2717.15 kva on ABCS
  phases ABCN;
  from R2_12_47_3_node_289;
  to R2_12_47_3_node_291;
  status CLOSED;
}
object switch {
  name R2_12_47_3_switch_29;
// downstream 2717.15 kva on ABCS
  phases ABCN;
  from R2_12_47_3_node_293;
  to R2_12_47_3_node_294;
  status CLOSED;
}
object switch {
  name R2_12_47_3_switch_30;
// downstream 1896.78 kva on ABCS
  phases ABCN;
  from R2_12_47_3_node_294;
  to R2_12_47_3_node_295;
  status CLOSED;
}
object switch {
  name R2_12_47_3_switch_31;
  phases BN;
  from R2_12_47_3_node_304;
  to R2_12_47_3_node_780;
  status CLOSED;
}
object switch {
  name R2_12_47_3_switch_32;
  phases CN;
  from R2_12_47_3_node_306;
  to R2_12_47_3_node_307;
  status CLOSED;
}
object switch {
  name R2_12_47_3_switch_33;
// downstream 19.52 kva on CS
  phases CN;
  from R2_12_47_3_node_308;
  to R2_12_47_3_node_309;
  status CLOSED;
}
object switch {
  name R2_12_47_3_switch_34;
  phases CN;
  from R2_12_47_3_node_318;
  to R2_12_47_3_node_319;
  status CLOSED;
}
object switch {
  name R2_12_47_3_switch_35;
  phases CN;
  from R2_12_47_3_node_328;
  to R2_12_47_3_node_329;
  status CLOSED;
}
object switch {
  name R2_12_47_3_switch_36;
// downstream 39.04 kva on CS
  phases CN;
  from R2_12_47_3_node_306;
  to R2_12_47_3_node_380;
  status CLOSED;
}
object switch {
  name R2_12_47_3_switch_37;
// downstream 9.45 kva on AS
  phases ABCN;
  from R2_12_47_3_node_381;
  to R2_12_47_3_node_382;
  status CLOSED;
}
object switch {
  name R2_12_47_3_switch_38;
  phases BN;
  from R2_12_47_3_node_389;
  to R2_12_47_3_node_787;
  status CLOSED;
}
object switch {
  name R2_12_47_3_switch_39;
// downstream 71.33 kva on BS
  phases BN;
  from R2_12_47_3_node_390;
  to R2_12_47_3_node_399;
  status CLOSED;
}
object switch {
  name R2_12_47_3_switch_40;
// downstream 19.52 kva on CS
  phases ABCN;
  from R2_12_47_3_node_414;
  to R2_12_47_3_node_403;
  status CLOSED;
}
object switch {
  name R2_12_47_3_switch_41;
// downstream 323.41 kva on ABCS
  phases ABCN;
  from R2_12_47_3_node_420;
  to R2_12_47_3_node_414;
  status CLOSED;
}
object switch {
  name R2_12_47_3_switch_42;
  phases BN;
  from R2_12_47_3_node_531;
  to R2_12_47_3_node_791;
  status CLOSED;
}
object switch {
  name R2_12_47_3_switch_43;
  phases CN;
  from R2_12_47_3_node_531;
  to R2_12_47_3_node_792;
  status CLOSED;
}
object switch {
  name R2_12_47_3_switch_44;
// downstream 33.09 kva on AS
  phases AN;
  from R2_12_47_3_node_435;
  to R2_12_47_3_node_436;
  status CLOSED;
}
object switch {
  name R2_12_47_3_switch_45;
// downstream 50.15 kva on BS
  phases BN;
  from R2_12_47_3_node_435;
  to R2_12_47_3_node_437;
  status CLOSED;
}
object switch {
  name R2_12_47_3_switch_46;
// downstream 14.18 kva on AS
  phases AN;
  from R2_12_47_3_node_445;
  to R2_12_47_3_node_447;
  status CLOSED;
}
object switch {
  name R2_12_47_3_switch_47;
  phases ABCN;
  from R2_12_47_3_node_451;
  to R2_12_47_3_node_433;
  status CLOSED;
}
object switch {
  name R2_12_47_3_switch_48;
// downstream 197.34 kva on ABCS
  phases ABCN;
  from R2_12_47_3_node_451;
  to R2_12_47_3_node_453;
  status CLOSED;
}
object switch {
  name R2_12_47_3_switch_49;
// downstream 828.21 kva on ABCS
  phases ABCN;
  from R2_12_47_3_node_454;
  to R2_12_47_3_node_518;
  status CLOSED;
}
object switch {
  name R2_12_47_3_switch_50;
// downstream 581.34 kva on ABCS
  phases ABCN;
  from R2_12_47_3_node_288;
  to R2_12_47_3_node_465;
  status CLOSED;
}
object switch {
  name R2_12_47_3_switch_51;
// downstream 581.34 kva on ABCS
  phases ABCN;
  from R2_12_47_3_node_468;
  to R2_12_47_3_node_467;
  status CLOSED;
}
object switch {
  name R2_12_47_3_switch_52;
  phases ABCN;
  from R2_12_47_3_node_467;
  to R2_12_47_3_node_472;
  status CLOSED;
}
object switch {
  name R2_12_47_3_switch_53;
  phases BN;
  from R2_12_47_3_node_514;
  to R2_12_47_3_node_515;
  status CLOSED;
}
object switch {
  name R2_12_47_3_switch_54;
// downstream 1896.78 kva on ABCS
  phases ABCN;
  from R2_12_47_3_node_516;
  to R2_12_47_3_node_454;
  status CLOSED;
}
object switch {
  name R2_12_47_3_switch_55;
  phases ABCN;
  from R2_12_47_3_node_454;
  to R2_12_47_3_node_519;
  status CLOSED;
}
object switch {
  name R2_12_47_3_switch_56;
  phases ABCN;
  from R2_12_47_3_node_529;
  to R2_12_47_3_node_800;
  status CLOSED;
}
object switch {
  name R2_12_47_3_switch_57;
// downstream 9.45 kva on AS
  phases AN;
  from R2_12_47_3_node_543;
  to R2_12_47_3_node_544;
  status CLOSED;
}
object switch {
  name R2_12_47_3_switch_58;
  phases ABCN;
  from R2_12_47_3_node_558;
  to R2_12_47_3_node_803;
  status CLOSED;
}
object switch {
  name R2_12_47_3_switch_59;
  phases BN;
  from R2_12_47_3_node_571;
  to R2_12_47_3_node_827;
  status CLOSED;
}
object switch {
  name R2_12_47_3_switch_60;
  phases BN;
  from R2_12_47_3_node_572;
  to R2_12_47_3_node_804;
  status CLOSED;
}
object switch {
  name R2_12_47_3_switch_61;
// downstream 68.33 kva on CS
  phases ABCN;
  from R2_12_47_3_node_566;
  to R2_12_47_3_node_590;
  status CLOSED;
}
object switch {
  name R2_12_47_3_switch_62;
  phases CN;
  from R2_12_47_3_node_595;
  to R2_12_47_3_node_598;
  status CLOSED;
}
object switch {
  name R2_12_47_3_switch_63;
  phases CN;
  from R2_12_47_3_node_597;
  to R2_12_47_3_node_828;
  status CLOSED;
}
object switch {
  name R2_12_47_3_switch_64;
  phases AN;
  from R2_12_47_3_node_602;
  to R2_12_47_3_node_614;
  status CLOSED;
}
object switch {
  name R2_12_47_3_switch_65;
  phases ABCN;
  from R2_12_47_3_node_608;
  to R2_12_47_3_node_829;
  status CLOSED;
}
object switch {
  name R2_12_47_3_switch_66;
  phases AN;
  from R2_12_47_3_node_612;
  to R2_12_47_3_node_808;
  status CLOSED;
}
object switch {
  name R2_12_47_3_switch_67;
// downstream 52.30 kva on ACS
  phases ABCN;
  from R2_12_47_3_node_623;
  to R2_12_47_3_node_604;
  status CLOSED;
}
object switch {
  name R2_12_47_3_switch_68;
// downstream 23.78 kva on BS
  phases BN;
  from R2_12_47_3_node_625;
  to R2_12_47_3_node_626;
  status CLOSED;
}
object switch {
  name R2_12_47_3_switch_69;
  phases ABCN;
  from R2_12_47_3_node_524;
  to R2_12_47_3_node_632;
  status CLOSED;
}
object switch {
  name R2_12_47_3_switch_70;
  phases ABCN;
  from R2_12_47_3_node_632;
  to R2_12_47_3_node_633;
  status CLOSED;
}
object switch {
  name R2_12_47_3_switch_71;
  phases ABCN;
  from R2_12_47_3_node_644;
  to R2_12_47_3_node_645;
  status CLOSED;
}
object switch {
  name R2_12_47_3_switch_72;
  phases ABCN;
  from R2_12_47_3_node_650;
  to R2_12_47_3_node_649;
  status CLOSED;
}
object switch {
  name R2_12_47_3_switch_73;
  phases CN;
  from R2_12_47_3_node_656;
  to R2_12_47_3_node_813;
  status CLOSED;
}
object switch {
  name R2_12_47_3_switch_74;
// downstream 47.56 kva on BS
  phases BN;
  from R2_12_47_3_node_657;
  to R2_12_47_3_node_669;
  status CLOSED;
}
object switch {
  name R2_12_47_3_switch_75;
// downstream 67.10 kva on ACS
  phases ACN;
  from R2_12_47_3_node_660;
  to R2_12_47_3_node_673;
  status CLOSED;
}
object switch {
  name R2_12_47_3_switch_76;
// downstream 35.67 kva on BS
  phases BN;
  from R2_12_47_3_node_666;
  to R2_12_47_3_node_681;
  status CLOSED;
}
object switch {
  name R2_12_47_3_switch_77;
// downstream 518.85 kva on ABCS
  phases ABCN;
  from R2_12_47_3_node_684;
  to R2_12_47_3_node_682;
  status CLOSED;
}
object switch {
  name R2_12_47_3_switch_78;
  phases ABCN;
  from R2_12_47_3_node_685;
  to R2_12_47_3_node_723;
  status CLOSED;
}
object switch {
  name R2_12_47_3_switch_79;
// downstream 98.95 kva on ABCS
  phases ABCN;
  from R2_12_47_3_node_688;
  to R2_12_47_3_node_677;
  status CLOSED;
}
object switch {
  name R2_12_47_3_switch_80;
// downstream 828.21 kva on ABCS
  phases ABCN;
  from R2_12_47_3_node_689;
  to R2_12_47_3_node_685;
  status CLOSED;
}
object switch {
  name R2_12_47_3_switch_81;
  phases ABCN;
  from R2_12_47_3_node_692;
  to R2_12_47_3_node_674;
  status CLOSED;
}
object switch {
  name R2_12_47_3_switch_82;
// downstream 37.81 kva on AS
  phases AN;
  from R2_12_47_3_node_670;
  to R2_12_47_3_node_696;
  status CLOSED;
}
object switch {
  name R2_12_47_3_switch_83;
  phases CN;
  from R2_12_47_3_node_692;
  to R2_12_47_3_node_796;
  status CLOSED;
}
object switch {
  name R2_12_47_3_switch_84;
  phases CN;
  from R2_12_47_3_node_674;
  to R2_12_47_3_node_797;
  status CLOSED;
}
object switch {
  name R2_12_47_3_switch_85;
  phases CN;
  from R2_12_47_3_node_705;
  to R2_12_47_3_node_795;
  status CLOSED;
}
object switch {
  name R2_12_47_3_switch_86;
  phases AN;
  from R2_12_47_3_node_709;
  to R2_12_47_3_node_798;
  status CLOSED;
}
object switch {
  name R2_12_47_3_switch_87;
  phases ABCN;
  from R2_12_47_3_node_650;
  to R2_12_47_3_node_721;
  status CLOSED;
}
object switch {
  name R2_12_47_3_switch_88;
  phases CN;
  from R2_12_47_3_node_725;
  to R2_12_47_3_node_799;
  status CLOSED;
}
object switch {
  name R2_12_47_3_switch_89;
  phases BN;
  from R2_12_47_3_node_729;
  to R2_12_47_3_node_821;
  status CLOSED;
}
object switch {
  name R2_12_47_3_switch_90;
// downstream 63.89 kva on BCS
  phases ABCN;
  from R2_12_47_3_node_724;
  to R2_12_47_3_node_729;
  status CLOSED;
}
object switch {
  name R2_12_47_3_switch_91;
// downstream 17.83 kva on BS
  phases BN;
  from R2_12_47_3_node_733;
  to R2_12_47_3_node_732;
  status CLOSED;
}
object switch {
  name R2_12_47_3_switch_92;
// downstream 51.99 kva on AS
  phases AN;
  from R2_12_47_3_node_662;
  to R2_12_47_3_node_742;
  status CLOSED;
}
object switch {
  name R2_12_47_3_switch_93;
// downstream 9.45 kva on AS
  phases AN;
  from R2_12_47_3_node_741;
  to R2_12_47_3_node_746;
  status CLOSED;
}
object overhead_line {
  name R2_12_47_3_ol_1;
// downstream 83.46 kva on ABCS
  phases ABCN;
  from R2_12_47_3_node_535;
  to R2_12_47_3_node_534;
  length 76.990;
  configuration ID_51;
}
object overhead_line {
  name R2_12_47_3_ol_2;
// downstream 19.21 kva on ACS
  phases ACN;
  from R2_12_47_3_node_41;
  to R2_12_47_3_node_42;
  length 174.679;
  configuration ID_52;
}
object overhead_line {
  name R2_12_47_3_ol_3;
// downstream 19.21 kva on ACS
  phases ACN;
  from R2_12_47_3_node_39;
  to R2_12_47_3_node_41;
  length 330.700;
  configuration ID_53;
}
object overhead_line {
  name R2_12_47_3_ol_4;
// downstream 9.33 kva on ABC
  phases ABCN;
  from R2_12_47_3_node_46;
  to R2_12_47_3_node_48;
  length 140.655;
  configuration ID_55;
}
object overhead_line {
  name R2_12_47_3_ol_5;
// downstream 9.33 kva on ABC
  phases ABCN;
  from R2_12_47_3_node_48;
  to R2_12_47_3_node_49;
  length 291.567;
  configuration ID_55;
}
object overhead_line {
  name R2_12_47_3_ol_6;
// downstream 9.33 kva on ABC
  phases ABCN;
  from R2_12_47_3_node_49;
  to R2_12_47_3_node_50;
  length 291.051;
  configuration ID_55;
}
object overhead_line {
  name R2_12_47_3_ol_7;
// downstream 24.28 kva on ABCS
  phases ABCN;
  from R2_12_47_3_node_47;
  to R2_12_47_3_node_46;
  length 321.700;
  configuration ID_51;
}
object overhead_line {
  name R2_12_47_3_ol_8;
// downstream 872.17 kva on ABCS
  phases ABCN;
  from R2_12_47_3_node_53;
  to R2_12_47_3_node_52;
  length 233.437;
  configuration ID_56;
}
object overhead_line {
  name R2_12_47_3_ol_9;
// downstream 887.12 kva on ABCS
  phases ABCN;
  from R2_12_47_3_node_54;
  to R2_12_47_3_node_53;
  length 206.673;
  configuration ID_56;
}
object overhead_line {
  name R2_12_47_3_ol_10;
// downstream 6522.69 kva on ABCS
  phases ABCN;
  from R2_12_47_3_node_56;
  to R2_12_47_3_node_55;
  length 63.867;
  configuration ID_56;
}
object overhead_line {
  name R2_12_47_3_ol_11;
// downstream 6522.69 kva on ABCS
  phases ABCN;
  from R2_12_47_3_node_57;
  to R2_12_47_3_node_56;
  length 177.660;
  configuration ID_56;
}
object overhead_line {
  name R2_12_47_3_ol_12;
// downstream 6522.69 kva on ABCS
  phases ABCN;
  from R2_12_47_3_node_58;
  to R2_12_47_3_node_57;
  length 183.993;
  configuration ID_56;
}
object overhead_line {
  name R2_12_47_3_ol_13;
// downstream 6537.33 kva on ABCS
  phases ABCN;
  from R2_12_47_3_node_59;
  to R2_12_47_3_node_58;
  length 202.304;
  configuration ID_56;
}
object overhead_line {
  name R2_12_47_3_ol_14;
// downstream 6537.33 kva on ABCS
  phases ABCN;
  from R2_12_47_3_node_60;
  to R2_12_47_3_node_59;
  length 206.681;
  configuration ID_56;
}
object overhead_line {
  name R2_12_47_3_ol_15;
// downstream 6537.33 kva on ABCS
  phases ABCN;
  from R2_12_47_3_node_61;
  to R2_12_47_3_node_60;
  length 179.512;
  configuration ID_56;
}
object overhead_line {
  name R2_12_47_3_ol_16;
// downstream 6551.97 kva on ABCS
  phases ABCN;
  from R2_12_47_3_node_65;
  to R2_12_47_3_node_61;
  length 195.668;
  configuration ID_56;
}
object overhead_line {
  name R2_12_47_3_ol_17;
// downstream 6581.25 kva on ABCS
  phases ABCN;
  from R2_12_47_3_node_66;
  to R2_12_47_3_node_65;
  length 269.008;
  configuration ID_56;
}
object overhead_line {
  name R2_12_47_3_ol_18;
// downstream 48.99 kva on ABCS
  phases ABCN;
  from R2_12_47_3_node_70;
  to R2_12_47_3_node_71;
  length 234.300;
  configuration ID_51;
}
object overhead_line {
  name R2_12_47_3_ol_19;
// downstream 1031.53 kva on ABCS
  phases ABCN;
  from R2_12_47_3_node_69;
  to R2_12_47_3_node_68;
  length 979.222;
  configuration ID_51;
}
object overhead_line {
  name R2_12_47_3_ol_20;
// downstream 7735.88 kva on ABCS
  phases ABCN;
  from R2_12_47_3_node_76;
  to R2_12_47_3_node_66;
  length 192.458;
  configuration ID_56;
}
object overhead_line {
  name R2_12_47_3_ol_21;
// downstream 14.64 kva on CS
  phases CN;
  from R2_12_47_3_node_81;
  to R2_12_47_3_node_80;
  length 56.847;
  configuration ID_57;
}
object overhead_line {
  name R2_12_47_3_ol_22;
// downstream 14.64 kva on CS
  phases CN;
  from R2_12_47_3_node_80;
  to R2_12_47_3_node_79;
  length 311.070;
  configuration ID_57;
}
object overhead_line {
  name R2_12_47_3_ol_23;
// downstream 7735.88 kva on ABCS
  phases ABCN;
  from R2_12_47_3_node_82;
  to R2_12_47_3_node_76;
  length 579.600;
  configuration ID_56;
}
object overhead_line {
  name R2_12_47_3_ol_24;
// downstream 7750.52 kva on ABCS
  phases ABCN;
  from R2_12_47_3_node_83;
  to R2_12_47_3_node_82;
  length 191.976;
  configuration ID_56;
}
object overhead_line {
  name R2_12_47_3_ol_25;
// downstream 239.30 kva on ABCS
  phases ABCN;
  from R2_12_47_3_node_88;
  to R2_12_47_3_node_87;
  length 173.872;
  configuration ID_56;
}
object overhead_line {
  name R2_12_47_3_ol_26;
// downstream 273.77 kva on ABCS
  phases ABCN;
  from R2_12_47_3_node_90;
  to R2_12_47_3_node_88;
  length 247.579;
  configuration ID_56;
}
object overhead_line {
  name R2_12_47_3_ol_27;
// downstream 850.08 kva on ABCS
  phases ABCN;
  from R2_12_47_3_node_92;
  to R2_12_47_3_node_90;
  length 163.832;
  configuration ID_56;
}
object overhead_line {
  name R2_12_47_3_ol_28;
// downstream 861.13 kva on ABCS
  phases ABCN;
  from R2_12_47_3_node_93;
  to R2_12_47_3_node_92;
  length 182.171;
  configuration ID_56;
}
object overhead_line {
  name R2_12_47_3_ol_29;
// downstream 861.13 kva on ABCS
  phases ABCN;
  from R2_12_47_3_node_94;
  to R2_12_47_3_node_93;
  length 188.327;
  configuration ID_56;
}
object overhead_line {
  name R2_12_47_3_ol_30;
// downstream 872.17 kva on ABCS
  phases ABCN;
  from R2_12_47_3_node_52;
  to R2_12_47_3_node_94;
  length 241.033;
  configuration ID_56;
}
object overhead_line {
  name R2_12_47_3_ol_31;
// downstream 19.52 kva on CS
  phases CN;
  from R2_12_47_3_node_98;
  to R2_12_47_3_node_97;
  length 200.720;
  configuration ID_57;
}
object overhead_line {
  name R2_12_47_3_ol_32;
// downstream 78.09 kva on CS
  phases CN;
  from R2_12_47_3_node_100;
  to R2_12_47_3_node_98;
  length 281.016;
  configuration ID_57;
}
object overhead_line {
  name R2_12_47_3_ol_33;
// downstream 87.85 kva on CS
  phases CN;
  from R2_12_47_3_node_101;
  to R2_12_47_3_node_100;
  length 111.159;
  configuration ID_57;
}
object overhead_line {
  name R2_12_47_3_ol_34;
// downstream 87.85 kva on CS
  phases CN;
  from R2_12_47_3_node_102;
  to R2_12_47_3_node_101;
  length 69.132;
  configuration ID_57;
}
object overhead_line {
  name R2_12_47_3_ol_35;
// downstream 664.95 kva on ABCS
  phases ABCN;
  from R2_12_47_3_node_103;
  to R2_12_47_3_node_108;
  length 138.623;
  configuration ID_55;
}
object overhead_line {
  name R2_12_47_3_ol_36;
// downstream 87.85 kva on CS
  phases CN;
  from R2_12_47_3_node_27;
  to R2_12_47_3_node_102;
  length 15.980;
  configuration ID_57;
}
object overhead_line {
  name R2_12_47_3_ol_37;
// downstream 664.95 kva on ABCS
  phases ABCN;
  from R2_12_47_3_node_27;
  to R2_12_47_3_node_103;
  length 17.701;
  configuration ID_55;
}
object overhead_line {
  name R2_12_47_3_ol_38;
// downstream 752.80 kva on ABCS
  phases ABCN;
  from R2_12_47_3_node_104;
  to R2_12_47_3_node_27;
  length 31.600;
  configuration ID_51;
}
object overhead_line {
  name R2_12_47_3_ol_39;
// downstream 752.80 kva on ABCS
  phases ABCN;
  from R2_12_47_3_node_105;
  to R2_12_47_3_node_104;
  length 297.336;
  configuration ID_51;
}
object overhead_line {
  name R2_12_47_3_ol_40;
// downstream 839.79 kva on ABCS
  phases ABCN;
  from R2_12_47_3_node_106;
  to R2_12_47_3_node_105;
  length 327.390;
  configuration ID_51;
}
object overhead_line {
  name R2_12_47_3_ol_41;
// downstream 858.45 kva on ABCS
  phases ABCN;
  from R2_12_47_3_node_107;
  to R2_12_47_3_node_106;
  length 322.031;
  configuration ID_51;
}
object overhead_line {
  name R2_12_47_3_ol_42;
// downstream 917.02 kva on ABCS
  phases ABCN;
  from R2_12_47_3_node_68;
  to R2_12_47_3_node_107;
  length 949.397;
  configuration ID_51;
}
object overhead_line {
  name R2_12_47_3_ol_43;
// downstream 664.95 kva on ABCS
  phases ABCN;
  from R2_12_47_3_node_108;
  to R2_12_47_3_node_109;
  length 169.281;
  configuration ID_55;
}
object overhead_line {
  name R2_12_47_3_ol_44;
// downstream 640.86 kva on ABCS
  phases ABCN;
  from R2_12_47_3_node_109;
  to R2_12_47_3_node_247;
  length 165.223;
  configuration ID_55;
}
object overhead_line {
  name R2_12_47_3_ol_45;
// downstream 558.67 kva on ABCS
  phases ABCN;
  from R2_12_47_3_node_110;
  to R2_12_47_3_node_573;
  length 261.276;
  configuration ID_55;
}
object overhead_line {
  name R2_12_47_3_ol_46;
// downstream 558.67 kva on ABCS
  phases ABCN;
  from R2_12_47_3_node_111;
  to R2_12_47_3_node_112;
  length 254.031;
  configuration ID_55;
}
object overhead_line {
  name R2_12_47_3_ol_47;
// downstream 19.52 kva on CS
  phases CN;
  from R2_12_47_3_node_97;
  to R2_12_47_3_node_96;
  length 130.138;
  configuration ID_57;
}
object overhead_line {
  name R2_12_47_3_ol_48;
// downstream 9.76 kva on CS
  phases CN;
  from R2_12_47_3_node_96;
  to R2_12_47_3_node_95;
  length 371.677;
  configuration ID_57;
}
object overhead_line {
  name R2_12_47_3_ol_49;
// downstream 231.50 kva on ACS
  phases ACN;
  from R2_12_47_3_node_116;
  to R2_12_47_3_node_39;
  length 340.200;
  configuration ID_53;
}
object overhead_line {
  name R2_12_47_3_ol_50;
// downstream 239.18 kva on ACS
  phases ACN;
  from R2_12_47_3_node_117;
  to R2_12_47_3_node_116;
  length 351.211;
  configuration ID_53;
}
object overhead_line {
  name R2_12_47_3_ol_51;
// downstream 239.18 kva on ACS
  phases ACN;
  from R2_12_47_3_node_86;
  to R2_12_47_3_node_117;
  length 266.753;
  configuration ID_61;
}
object overhead_line {
  name R2_12_47_3_ol_52;
// downstream 239.18 kva on ACS
  phases ACN;
  from R2_12_47_3_node_148;
  to R2_12_47_3_node_86;
  length 366.056;
  configuration ID_61;
}
object overhead_line {
  name R2_12_47_3_ol_53;
// downstream 402.66 kva on ACS
  phases ACN;
  from R2_12_47_3_node_145;
  to R2_12_47_3_node_148;
  length 345.116;
  configuration ID_61;
}
object overhead_line {
  name R2_12_47_3_ol_54;
// downstream 444.95 kva on ABCS
  phases ABCN;
  from R2_12_47_3_node_115;
  to R2_12_47_3_node_145;
  length 203.427;
  configuration ID_65;
}
object overhead_line {
  name R2_12_47_3_ol_55;
// downstream 444.95 kva on ABCS
  phases ABCN;
  from R2_12_47_3_node_146;
  to R2_12_47_3_node_115;
  length 384.269;
  configuration ID_51;
}
...